
#======================================================================
# CRYSTAL DATA
#----------------------------------------------------------------------
data_VESTA_phase_1

_chemical_name_common                  ''
_cell_length_a                         26.296000
_cell_length_b                         26.296000
_cell_length_c                         26.296000
_cell_angle_alpha                      90.000000
_cell_angle_beta                       90.000000
_cell_angle_gamma                      90.000000
_cell_volume                           18183.147001
_space_group_name_H-M_alt              'P a -3'
_space_group_IT_number                 205

loop_
_space_group_symop_operation_xyz
   'x, y, z'
   '-x, -y, -z'
   '-x+1/2, -y, z+1/2'
   'x+1/2, y, -z+1/2'
   '-x, y+1/2, -z+1/2'
   'x, -y+1/2, z+1/2'
   'x+1/2, -y+1/2, -z'
   '-x+1/2, y+1/2, z'
   'z, x, y'
   '-z, -x, -y'
   'z+1/2, -x+1/2, -y'
   '-z+1/2, x+1/2, y'
   '-z+1/2, -x, y+1/2'
   'z+1/2, x, -y+1/2'
   '-z, x+1/2, -y+1/2'
   'z, -x+1/2, y+1/2'
   'y, z, x'
   '-y, -z, -x'
   '-y, z+1/2, -x+1/2'
   'y, -z+1/2, x+1/2'
   'y+1/2, -z+1/2, -x'
   '-y+1/2, z+1/2, x'
   '-y+1/2, -z, x+1/2'
   'y+1/2, z, -x+1/2'

loop_
   _atom_site_label
   _atom_site_occupancy
   _atom_site_fract_x
   _atom_site_fract_y
   _atom_site_fract_z
   _atom_site_adp_type
   _atom_site_U_iso_or_equiv
   _atom_site_type_symbol
   V1         1.0     0.039500     0.125220     0.211390    Uani  0.009900 V
   ZR1        1.0     0.001110     0.334400     0.497430    Uani  0.006533 Zr
   O1         1.0     0.040960     0.348190     0.089680    Uani  0.024100 O
   O2         1.0     0.018720     0.428710     0.027400    Uani  0.030667 O
   O3         1.0     0.009520     0.103730     0.371960    Uani  0.023200 O
   O4         1.0     0.027420     0.342750     0.423520    Uani  0.022800 O
   O5         1.0     0.099910     0.371080     0.353400    Uani  0.028667 O
   O6         1.0     0.019960     0.434610     0.373800    Uani  0.021300 O
   V2         1.0     0.375410     0.375410     0.375410    Uani  0.009500 V
   V3         1.0     0.038340     0.038340     0.038340    Uani  0.009100 V
   V4         1.0     0.298530     0.298530     0.298530    Uani  0.010400 V
   O7         1.0     0.143500     0.270060     0.364100    Uani  0.033667 O
   V5         1.0     0.037270     0.458570     0.205940    Uani  0.009967 V
   O8         1.0     0.068070     0.198700     0.364290    Uani  0.030000 O
   V6         1.0     0.198360     0.371220     0.466390    Uani  0.008667 V
   V7         1.0     0.131430     0.294610     0.204790    Uani  0.009900 V
   V8         1.0     0.130480     0.208480     0.372260    Uani  0.009700 V
   V9         1.0     0.029700     0.043170     0.370070    Uani  0.009733 V
   V10        1.0     0.037930     0.373470     0.368550    Uani  0.010000 V
   ZR2        1.0     0.500000     0.500000     0.500000    Uani  0.007100 Zr
   ZR3        1.0     0.165360     0.165360     0.165360    Uani  0.007090 Zr
   ZR4        1.0     0.168650     0.337980     0.333900    Uani  0.006733 Zr
   ZR5        1.0     0.003780     0.329860     0.156160    Uani  0.005533 Zr
   ZR6        1.0     0.164330     0.499920     0.173390    Uani  0.006500 Zr
   V11        1.0     0.213130     0.465970     0.299650    Uani  0.009500 V
   O9         1.0     0.017150     0.402550     0.183950    Uani  0.028667 O
   O10        1.0     0.337160     0.337160     0.337160    Uani  0.044000 O
   O11        1.0     0.164300     0.324100     0.499600    Uani  0.040000 O
   O12        1.0     0.163800     0.172900     0.327000    Uani  0.042667 O
   O13        1.0     0.008000     0.170700     0.489900    Uani  0.037333 O
   O14        1.0     0.002700     0.345000     0.319300    Uani  0.035667 O
   O15        1.0     0.354220     0.373780     0.435480    Uani  0.026000 O
   O16        1.0     0.016240     0.037070     0.098150    Uani  0.022133 O
   O17        1.0     0.237780     0.304900     0.316240    Uani  0.030000 O
   O18        1.0     0.275800     0.467700     0.311960    Uani  0.025800 O
   O19        1.0     0.192420     0.405930     0.302820    Uani  0.029000 O
   O20        1.0     0.147600     0.191700     0.430830    Uani  0.033667 O
   O21        1.0     0.100740     0.462610     0.200510    Uani  0.026667 O
   O22        1.0     0.000000     0.000000     0.000000    Uani  0.041000 O
   O23        1.0     0.020600     0.464920     0.267340    Uani  0.025300 O
   O24        1.0     0.099340     0.129850     0.189310    Uani  0.027333 O
   O25        1.0     0.018510     0.065020     0.206530    Uani  0.025000 O
   O26        1.0     0.037020     0.144030     0.272370    Uani  0.022800 O
   O27        1.0     0.171070     0.427840     0.475450    Uani  0.025667 O
   O28        1.0     0.258260     0.372410     0.488460    Uani  0.025133 O
   O29        1.0     0.198200     0.357290     0.404270    Uani  0.028200 O
   O30        1.0     0.143960     0.232130     0.201660    Uani  0.027000 O
   O31        1.0     0.071520     0.304900     0.186700    Uani  0.033000 O
   O32        1.0     0.139400     0.315640     0.264430    Uani  0.029000 O
   O33        1.0     0.202070     0.489280     0.241460    Uani  0.027667 O

loop_
   _atom_site_aniso_label
   _atom_site_aniso_U_11
   _atom_site_aniso_U_22
   _atom_site_aniso_U_33
   _atom_site_aniso_U_12
   _atom_site_aniso_U_13
   _atom_site_aniso_U_23
   V1	 0.01050  0.00790  0.01130  0.00080 -0.00150 -0.00080
   ZR1	 0.00600  0.00810  0.00550  0.00132 -0.00021 -0.00082
   O1	 0.01430  0.03000  0.02800  0.00850  0.00770  0.00220
   O2	 0.04500  0.03000  0.01700  0.00300  0.00800  0.01360
   O3	 0.02700  0.01560  0.02700  0.00950  0.00410  0.00310
   O4	 0.03800  0.01700  0.01340  0.00230  0.00670  0.00280
   O5	 0.01700  0.03400  0.03500  0.00710  0.01180 -0.00100
   O6	 0.02600  0.01490  0.02300  0.00820  0.00010  0.00380
   V2	 0.00950  0.00950  0.00950  0.00150  0.00150  0.00150
   V3	 0.00910  0.00910  0.00910  0.00000  0.00200 -0.00200
   V4	 0.01040  0.01040  0.01040  0.00120  0.00120  0.00120
   O7	 0.04100  0.01900  0.04100  0.00000  0.00500  0.00800
   V5	 0.01180  0.00850  0.00960  0.00150  0.00130  0.00180
   O8	 0.01600  0.04000  0.03400  0.00000 -0.00810 -0.01100
   V6	 0.00830  0.00830  0.00940  0.00080 -0.00110 -0.00100
   V7	 0.00960  0.01010  0.01000  0.00000 -0.00170  0.00130
   V8	 0.01020  0.00960  0.00930  0.00000 -0.00190  0.00210
   V9	 0.01130  0.00860  0.00930  0.00160  0.00210  0.00110
   V10	 0.01080  0.01070  0.00850  0.00100  0.00110  0.00060
   ZR2	 0.00710  0.00710  0.00710  0.00000 -0.00240  0.00240
   ZR3	 0.00709  0.00709  0.00709  0.00143  0.00143  0.00143
   ZR4	 0.00730  0.00640  0.00650  0.00000  0.00134 -0.00119
   ZR5	 0.00650  0.00590  0.00420  0.00000 -0.00094 -0.00052
   ZR6	 0.00570  0.00590  0.00790  0.00077 -0.00131 -0.00219
   V11	 0.01050  0.01000  0.00800  0.00180  0.00190  0.00140
   O9	 0.03600  0.02000  0.03000  0.00970  0.00100  0.01230
   O10	 0.04400  0.04400  0.04400  0.00000 -0.01600 -0.01600
   O11	 0.04100  0.03100  0.04800  0.00000  0.01400  0.01200
   O12	 0.04300  0.04600  0.03900  0.01600  0.00900 -0.01500
   O13	 0.03800  0.03300  0.04100  0.00000 -0.01000 -0.01300
   O14	 0.04700  0.03200  0.02800  0.00000 -0.01300 -0.00600
   O15	 0.01800  0.03000  0.03000  0.01190  0.00730  0.00080
   O16	 0.01540  0.02700  0.02400  0.00000  0.00660 -0.00480
   O17	 0.01700  0.04000  0.03300  0.00780  0.01040 -0.00300
   O18	 0.03000  0.03400  0.01340  0.00000  0.00210  0.00370
   O19	 0.01700  0.03800  0.03200  0.00720  0.01390 -0.00100
   O20	 0.03900  0.04200  0.02000  0.00100 -0.01100  0.01500
   O21	 0.01700  0.03100  0.03200  0.00390  0.00590 -0.01200
   O22	 0.04100  0.04100  0.04100  0.01200 -0.01200  0.01200
   O23	 0.03500  0.02600  0.01490  0.00000  0.00590  0.00730
   O24	 0.03100  0.03000  0.02100  0.00000 -0.00760 -0.01310
   O25	 0.02000  0.02600  0.02900  0.00680 -0.01130 -0.00110
   O26	 0.02600  0.01540  0.02700  0.00940  0.00260 -0.00210
   O27	 0.02400  0.01400  0.03900  0.00670 -0.00500 -0.00810
   O28	 0.01240  0.03600  0.02700  0.00700 -0.00730 -0.00280
   O29	 0.03400  0.03800  0.01260  0.00200 -0.00460 -0.01050
   O30	 0.03000  0.03600  0.01500  0.00700 -0.00520  0.00740
   O31	 0.03600  0.01700  0.04600  0.00000  0.00600  0.00800
   O32	 0.01900  0.03700  0.03100  0.00000 -0.01170 -0.00200
   O33	 0.03300  0.01600  0.03400  0.00940  0.00300  0.01010
